data/parralel_validation.dss
clear
new circuit.parralel_validation
~ basekv=0.4 1.0 0 50 3 320000 320000
new vsource.source2
~ bus1=sourcebus2 basekv=0.4 1.0 0 50 3 320000 320000

New linecode.556MCM nphases=3 basefreq=50  ! ohms per 5 mile
~ rmatrix = ( 0.1000 | 0.0400    0.1000 |  0.0400    0.0400    0.1000)
~ xmatrix = ( 0.0583 |  0.0233    0.0583 | 0.0233    0.0233    0.0583)
~ cmatrix = (50.92958178940651  | -0  50.92958178940651 | -0 -0 50.92958178940651)


New linecode.4/0QUAD nphases=3 basefreq=50  ! ohms per 100ft
~ rmatrix = ( 0.1167 | 0.0467    0.1167 | 0.0467    0.0467    0.1167)
~ xmatrix = (0.0667  |  0.0267    0.0667  |  0.0267    0.0267    0.0667 )
~ cmatrix = (50.92958178940651  | -0  50.92958178940651 | -0 -0 50.92958178940651)

new line.OH1 bus1=sourcebus.1.2.3 bus2=busa.1.2.3 linecode=556mcm length = 0.1
new line.OH2 bus1=sourcebus2.1.2.3 bus2=busb.1.2.3 linecode=556mcm length = 0.1

new line.quad1 bus1=busa.1.2.3 bus2=busb.1.2.3 linecode=4/0quad length=1
new line.quad2 bus1=busa.1.2.3 bus2=busb.1.2.3 linecode=4/0quad length=1

set voltagebases=[0.4]
set tolerance=0.000001
set defaultbasefreq=50
calcvoltagebases

solve